opendss_matlab_interface/samplename_VLN_Node.Txt

LINE-GROUND and LINE-LINE VOLTAGES BY BUS & NODE

Bus       Node    VLN (kV)   Angle      pu     Base kV    Node-Node   VLL (kV)  Angle      pu

SOURCEBUS 1       66.395 /_    0.0       0.5   230.000        1-2        115 /_   30.0       0.5
   -      2       66.395 /_ -120.0       0.5   230.000        2-3        115 /_  -90.0       0.5
   -      3       66.395 /_  120.0       0.5   230.000        3-1        115 /_  150.0       0.5
BUS1 .... 1       9.5263 /_    0.0         1    16.500        1-2       16.5 /_   30.0         1
   -      2       9.5263 /_ -120.0         1    16.500        2-3       16.5 /_  -90.0         1
   -      3       9.5263 /_  120.0         1    16.500        3-1       16.5 /_  150.0         1
BUS2 .... 1       10.392 /_    0.0         1    18.000        1-2         18 /_   30.0         1
   -      2       10.392 /_ -120.0         1    18.000        2-3         18 /_  -90.0         1
   -      3       10.392 /_  120.0         1    18.000        3-1         18 /_  150.0         1
BUS3 .... 1       7.9674 /_    0.0         1    13.800        1-2       13.8 /_   30.0         1
   -      2       7.9674 /_ -120.0         1    13.800        2-3       13.8 /_  -90.0         1
   -      3       7.9674 /_  120.0         1    13.800        3-1       13.8 /_  150.0         1
BUS4 .... 1       90.502 /_    4.4   0.68154   230.000        1-2     156.75 /_   34.4   0.68154
   -      2       90.502 /_ -115.6   0.68154   230.000        2-3     156.75 /_  -85.6   0.68154
   -      3       90.502 /_  124.4   0.68154   230.000        3-1     156.75 /_  154.4   0.68154
BUS8 .... 1       88.919 /_    2.6   0.66962   230.000        1-2     154.01 /_   32.6   0.66962
   -      2       88.919 /_ -117.4   0.66962   230.000        2-3     154.01 /_  -87.4   0.66962
   -      3       88.919 /_  122.6   0.66962   230.000        3-1     154.01 /_  152.6   0.66962
BUS9 .... 1       89.288 /_    2.9    0.6724   230.000        1-2     154.65 /_   32.9   0.67239
   -      2       89.288 /_ -117.1   0.67239   230.000        2-3     154.65 /_  -87.1   0.67239
   -      3       89.288 /_  122.9   0.67239   230.000        3-1     154.65 /_  152.9   0.67239
BUS5 .... 1       90.796 /_    4.3   0.68375   230.000        1-2     157.26 /_   34.3   0.68375
   -      2       90.795 /_ -115.7   0.68375   230.000        2-3     157.26 /_  -85.7   0.68375
   -      3       90.796 /_  124.3   0.68375   230.000        3-1     157.26 /_  154.3   0.68375
BUS6 .... 1        92.03 /_    5.3   0.69304   230.000        1-2      159.4 /_   35.3   0.69304
   -      2       92.029 /_ -114.7   0.69304   230.000        2-3      159.4 /_  -84.7   0.69304
   -      3       92.029 /_  125.3   0.69304   230.000        3-1      159.4 /_  155.3   0.69304
BUS7 .... 1       90.109 /_    3.2   0.67858   230.000        1-2     156.07 /_   33.2   0.67858
   -      2       90.109 /_ -116.8   0.67858   230.000        2-3     156.07 /_  -86.8   0.67858
   -      3       90.109 /_  123.2   0.67858   230.000        3-1     156.07 /_  153.2   0.67858
